FoamFile
{
    format      ascii;
    class       dictionary;
    object      transportProperties;
}

transportModel  Newtonian;

nu              1.5e-05;
